// Generated for: spectre
// Generated on: Mar 19 10:01:47 2026
// Design library name: my_sram
// Design cell name: Sim_whole_sram_4x4
// Design view name: config
simulator lang=spectre
global 0
